bench/ieee39.raw
0, 100.00, 33, 0, 0, 60.000000
IEEE 39-BUS MODEL
BY CHANGGANG LI, SHANDONG UNIVERSITY, ON 2010-01-08 10:39:07 AM
       1, "BUS-1               ",   100.00,  1,    1,    1,    1,   1.047540,  -9.570700, 1.1000, 0.9000, 1.1000, 0.9000, 60.0
       2, "BUS-2               ",   100.00,  1,    1,    1,    1,   1.048960,  -7.011100, 1.1000, 0.9000, 1.1000, 0.9000, 60.0
       3, "BUS-3               ",   100.00,  1,    1,    1,    1,   1.030420,  -9.858100, 1.1000, 0.9000, 1.1000, 0.9000, 60.0
       4, "BUS-4               ",   100.00,  1,    1,    1,    1,   1.003810, -10.654600, 1.1000, 0.9000, 1.1000, 0.9000, 60.0
       5, "BUS-5               ",   100.00,  1,    1,    1,    1,   1.005020,  -9.468700, 1.1000, 0.9000, 1.1000, 0.9000, 60.0
       6, "BUS-6               ",   100.00,  1,    1,    1,    1,   1.007360,  -8.766800, 1.1000, 0.9000, 1.1000, 0.9000, 60.0
       7, "BUS-7               ",   100.00,  1,    1,    1,    1,   0.996700, -10.970200, 1.1000, 0.9000, 1.1000, 0.9000, 60.0
       8, "BUS-8               ",   100.00,  1,    1,    1,    1,   0.995730, -11.476200, 1.1000, 0.9000, 1.1000, 0.9000, 60.0
       9, "BUS-9               ",   100.00,  1,    1,    1,    1,   1.028090, -11.299700, 1.1000, 0.9000, 1.1000, 0.9000, 60.0
      10, "BUS-10              ",   100.00,  1,    1,    1,    1,   1.017020,  -6.381600, 1.1000, 0.9000, 1.1000, 0.9000, 60.0
      11, "BUS-11              ",   100.00,  1,    1,    1,    1,   1.012530,  -7.195200, 1.1000, 0.9000, 1.1000, 0.9000, 60.0
      12, "BUS-12              ",   100.00,  1,    1,    1,    1,   1.000000,  -7.210600, 1.1000, 0.9000, 1.1000, 0.9000, 60.0
      13, "BUS-13              ",   100.00,  1,    1,    1,    1,   1.014190,  -7.095900, 1.1000, 0.9000, 1.1000, 0.9000, 60.0
      14, "BUS-14              ",   100.00,  1,    1,    1,    1,   1.011730,  -8.764800, 1.1000, 0.9000, 1.1000, 0.9000, 60.0
      15, "BUS-15              ",   100.00,  1,    1,    1,    1,   1.015780,  -9.180700, 1.1000, 0.9000, 1.1000, 0.9000, 60.0
      16, "BUS-16              ",   100.00,  1,    1,    1,    1,   1.032250,  -7.776600, 1.1000, 0.9000, 1.1000, 0.9000, 60.0
      17, "BUS-17              ",   100.00,  1,    1,    1,    1,   1.033950,  -8.774800, 1.1000, 0.9000, 1.1000, 0.9000, 60.0
      18, "BUS-18              ",   100.00,  1,    1,    1,    1,   1.031300,  -9.615600, 1.1000, 0.9000, 1.1000, 0.9000, 60.0
      19, "BUS-19              ",   100.00,  1,    1,    1,    1,   1.050010,  -3.152500, 1.1000, 0.9000, 1.1000, 0.9000, 60.0
      20, "BUS-20              ",   100.00,  1,    1,    1,    1,   0.990960,  -4.563900, 1.1000, 0.9000, 1.1000, 0.9000, 60.0
      21, "BUS-21              ",   100.00,  1,    1,    1,    1,   1.032100,  -5.371000, 1.1000, 0.9000, 1.1000, 0.9000, 60.0
      22, "BUS-22              ",   100.00,  1,    1,    1,    1,   1.049980,  -0.923900, 1.1000, 0.9000, 1.1000, 0.9000, 60.0
      23, "BUS-23              ",   100.00,  1,    1,    1,    1,   1.044980,  -1.122100, 1.1000, 0.9000, 1.1000, 0.9000, 60.0
      24, "BUS-24              ",   100.00,  1,    1,    1,    1,   1.037750,  -7.657000, 1.1000, 0.9000, 1.1000, 0.9000, 60.0
      25, "BUS-25              ",   100.00,  1,    1,    1,    1,   1.057520,  -5.649300, 1.1000, 0.9000, 1.1000, 0.9000, 60.0
      26, "BUS-26              ",   100.00,  1,    1,    1,    1,   1.052160,  -6.905800, 1.1000, 0.9000, 1.1000, 0.9000, 60.0
      27, "BUS-27              ",   100.00,  1,    1,    1,    1,   1.037950,  -8.917300, 1.1000, 0.9000, 1.1000, 0.9000, 60.0
      28, "BUS-28              ",   100.00,  1,    1,    1,    1,   1.050160,  -3.394200, 1.1000, 0.9000, 1.1000, 0.9000, 60.0
      29, "BUS-29              ",   100.00,  1,    1,    1,    1,   1.049970,  -0.635100, 1.1000, 0.9000, 1.1000, 0.9000, 60.0
      30, "BUS-30              ",   100.00,  2,    1,    1,    1,   1.047500,  -4.591800, 1.1000, 0.9000, 1.1000, 0.9000, 60.0
      31, "BUS-31              ",   100.00,  3,    1,    1,    1,   0.982000,   0.000000, 1.1000, 0.9000, 1.1000, 0.9000, 60.0
      32, "BUS-32              ",   100.00,  2,    1,    1,    1,   0.983100,   1.615500, 1.1000, 0.9000, 1.1000, 0.9000, 60.0
      33, "BUS-33              ",   100.00,  2,    1,    1,    1,   0.997200,   2.064700, 1.1000, 0.9000, 1.1000, 0.9000, 60.0
      34, "BUS-34              ",   100.00,  2,    1,    1,    1,   1.012300,   0.626300, 1.1000, 0.9000, 1.1000, 0.9000, 60.0
      35, "BUS-35              ",   100.00,  2,    1,    1,    1,   1.049300,   4.037000, 1.1000, 0.9000, 1.1000, 0.9000, 60.0
      36, "BUS-36              ",   100.00,  2,    1,    1,    1,   1.063500,   6.729500, 1.1000, 0.9000, 1.1000, 0.9000, 60.0
      37, "BUS-37              ",   100.00,  2,    1,    1,    1,   1.027800,   1.135500, 1.1000, 0.9000, 1.1000, 0.9000, 60.0
      38, "BUS-38              ",   100.00,  2,    1,    1,    1,   1.026500,   6.428200, 1.1000, 0.9000, 1.1000, 0.9000, 60.0
      39, "BUS-39              ",   100.00,  2,    1,    1,    1,   1.030000, -11.108300, 1.1000, 0.9000, 1.1000, 0.9000, 60.0
0 / END OF BUS DATA, BEGIN LOAD DATA
       3,    "1", 1,        1,        1,      322,      2.4,        0,        0,        0,        0,        1,        0
       4,    "1", 1,        1,        1,      500,      184,        0,        0,        0,        0,        1,        0
       7,    "1", 1,        1,        1,    233.8,       84,        0,        0,        0,        0,        1,        0
       8,    "1", 1,        1,        1,      522,      176,        0,        0,        0,        0,        1,        0
      12,    "1", 1,        1,        1,      8.5,       88,        0,        0,        0,        0,        1,        0
      15,    "1", 1,        1,        1,      320,      153,        0,        0,        0,        0,        1,        0
      16,    "1", 1,        1,        1,      329,     32.3,        0,        0,        0,        0,        1,        0
      18,    "1", 1,        1,        1,      158,       30,        0,        0,        0,        0,        1,        0
      20,    "1", 1,        1,        1,      680,      103,        0,        0,        0,        0,        1,        0
      21,    "1", 1,        1,        1,      274,      115,        0,        0,        0,        0,        1,        0
      23,    "1", 1,        1,        1,    247.5,     84.6,        0,        0,        0,        0,        1,        0
      24,    "1", 1,        1,        1,    308.6,    -92.2,        0,        0,        0,        0,        1,        0
      25,    "1", 1,        1,        1,      224,     47.2,        0,        0,        0,        0,        1,        0
      26,    "1", 1,        1,        1,      139,       17,        0,        0,        0,        0,        1,        0
      27,    "1", 1,        1,        1,      281,     75.5,        0,        0,        0,        0,        1,        0
      28,    "1", 1,        1,        1,      206,     27.6,        0,        0,        0,        0,        1,        0
      29,    "1", 1,        1,        1,    283.5,     26.9,        0,        0,        0,        0,        1,        0
      31,    "1", 1,        1,        1,      9.2,      4.6,        0,        0,        0,        0,        1,        0
      39,    "1", 1,        1,        1,     1104,      250,        0,        0,        0,        0,        1,        0
0 / END OF LOAD DATA, BEGIN FIXED SHUNT DATA
0 / END OF FIXED SHUNT DATA, BEGIN GENERATOR DATA
      30,    "1",   250.000000,   144.919000,  1000.000000, -1000.000000, 1.047500,        0,  1000.0000,  0.000000,  0.002000, 0.00, 0.00, 1.00, 1,100.00,   300.000000,     0.000000, 1, 1.000000, 0, 0.000000, 0, 0.000000, 0, 0.000000, 0, 0.00, 0
      31,    "1",   572.835000,   207.036000,  9999.000000, -9999.000000, 0.982000,        0,  1000.0000,  0.000000,  0.002000, 0.00, 0.00, 1.00, 1,100.00,   600.000000,     0.000000, 1, 1.000000, 0, 0.000000, 0, 0.000000, 0, 0.000000, 0, 0.00, 0
      32,    "1",   650.000000,   205.731000,  1000.000000, -1000.000000, 0.983100,        0,  1000.0000,  0.000000,  0.002000, 0.00, 0.00, 1.00, 1,100.00,   700.000000,     0.000000, 1, 1.000000, 0, 0.000000, 0, 0.000000, 0, 0.000000, 0, 0.00, 0
      33,    "1",   632.000000,   108.936000,  1000.000000, -1000.000000, 0.997200,        0,  1000.0000,  0.000000,  0.002000, 0.00, 0.00, 1.00, 1,100.00,   700.000000,     0.000000, 1, 1.000000, 0, 0.000000, 0, 0.000000, 0, 0.000000, 0, 0.00, 0
      34,    "1",   508.000000,   166.986000,  1000.000000, -1000.000000, 1.012300,        0,  1000.0000,  0.000000,  0.002000, 0.00, 0.00, 1.00, 1,100.00,   600.000000,     0.000000, 1, 1.000000, 0, 0.000000, 0, 0.000000, 0, 0.000000, 0, 0.00, 0
      35,    "1",   650.000000,   211.112000,  1000.000000, -1000.000000, 1.049300,        0,  1000.0000,  0.000000,  0.002000, 0.00, 0.00, 1.00, 1,100.00,   700.000000,     0.000000, 1, 1.000000, 0, 0.000000, 0, 0.000000, 0, 0.000000, 0, 0.00, 0
      38,    "1",   830.000000,    22.659000,  1000.000000, -1000.000000, 1.026500,        0,  1000.0000,  0.000000,  0.002000, 0.00, 0.00, 1.00, 1,100.00,   900.000000,     0.000000, 1, 1.000000, 0, 0.000000, 0, 0.000000, 0, 0.000000, 0, 0.00, 0
      39,    "1",  1000.000000,    87.883000,  1000.000000, -1000.000000, 1.030000,        0, 10000.0000,  0.000000,  0.000200, 0.00, 0.00, 1.00, 1,100.00,  1100.000000,     0.000000, 1, 1.000000, 0, 0.000000, 0, 0.000000, 0, 0.000000, 0, 0.00, 0
      36,    "1",   560.000000,   100.438000,     0.000000,     0.000000, 1.063500,        0,   900.0000,  0.000000,  0.002000, 0.00, 0.00, 1.00, 1,100.00,   600.000000,     0.000000, 1, 1.000000, 0, 0.000000, 0, 0.000000, 0, 0.000000, 2, 1.00, 1
      37,    "1",   540.000000,     0.647000,     0.000000,     0.000000, 1.027800,        0,   840.0000,  0.000000,  0.002000, 0.00, 0.00, 1.00, 1,100.00,   600.000000,     0.000000, 1, 1.000000, 0, 0.000000, 0, 0.000000, 0, 0.000000, 2, 1.00, 1
0 / END OF GENERATOR DATA, BEGIN TRANSMISSION LINE DATA
       1,        2,    "1",     0.003500,    0.041100,     0.698700,      0.000,      0.000,      0.000,     0.000000,     0.000000,     0.000000,     0.000000, 1, 1,   0.00,    1,  1.000,    0,  0.000,    0,  0.000,    0,  0.000
       1,       39,    "1",     0.001000,    0.025000,     0.750000,      0.000,      0.000,      0.000,     0.000000,     0.000000,     0.000000,     0.000000, 1, 1,   0.00,    1,  1.000,    0,  0.000,    0,  0.000,    0,  0.000
       2,        3,    "1",     0.001300,    0.015100,     0.257200,      0.000,      0.000,      0.000,     0.000000,     0.000000,     0.000000,     0.000000, 1, 1,   0.00,    1,  1.000,    0,  0.000,    0,  0.000,    0,  0.000
       2,       25,    "1",     0.007000,    0.008600,     0.146000,      0.000,      0.000,      0.000,     0.000000,     0.000000,     0.000000,     0.000000, 1, 1,   0.00,    1,  1.000,    0,  0.000,    0,  0.000,    0,  0.000
       3,        4,    "1",     0.001300,    0.021300,     0.221400,      0.000,      0.000,      0.000,     0.000000,     0.000000,     0.000000,     0.000000, 1, 1,   0.00,    1,  1.000,    0,  0.000,    0,  0.000,    0,  0.000
       3,       18,    "1",     0.001100,    0.013300,     0.213800,      0.000,      0.000,      0.000,     0.000000,     0.000000,     0.000000,     0.000000, 1, 1,   0.00,    1,  1.000,    0,  0.000,    0,  0.000,    0,  0.000
       4,        5,    "1",     0.000800,    0.012800,     0.134200,      0.000,      0.000,      0.000,     0.000000,     0.000000,     0.000000,     0.000000, 1, 1,   0.00,    1,  1.000,    0,  0.000,    0,  0.000,    0,  0.000
       4,       14,    "1",     0.000800,    0.012900,     0.138200,      0.000,      0.000,      0.000,     0.000000,     0.000000,     0.000000,     0.000000, 1, 1,   0.00,    1,  1.000,    0,  0.000,    0,  0.000,    0,  0.000
       5,        6,    "1",     0.000200,    0.002600,     0.043400,      0.000,      0.000,      0.000,     0.000000,     0.000000,     0.000000,     0.000000, 1, 1,   0.00,    1,  1.000,    0,  0.000,    0,  0.000,    0,  0.000
       5,        8,    "1",     0.000800,    0.011200,     0.147600,      0.000,      0.000,      0.000,     0.000000,     0.000000,     0.000000,     0.000000, 1, 1,   0.00,    1,  1.000,    0,  0.000,    0,  0.000,    0,  0.000
       6,        7,    "1",     0.000600,    0.009200,     0.113000,      0.000,      0.000,      0.000,     0.000000,     0.000000,     0.000000,     0.000000, 1, 1,   0.00,    1,  1.000,    0,  0.000,    0,  0.000,    0,  0.000
       6,       11,    "1",     0.000700,    0.008200,     0.138900,      0.000,      0.000,      0.000,     0.000000,     0.000000,     0.000000,     0.000000, 1, 1,   0.00,    1,  1.000,    0,  0.000,    0,  0.000,    0,  0.000
       7,        8,    "1",     0.000400,    0.004600,     0.078000,      0.000,      0.000,      0.000,     0.000000,     0.000000,     0.000000,     0.000000, 1, 1,   0.00,    1,  1.000,    0,  0.000,    0,  0.000,    0,  0.000
       8,        9,    "1",     0.002300,    0.036300,     0.380400,      0.000,      0.000,      0.000,     0.000000,     0.000000,     0.000000,     0.000000, 1, 1,   0.00,    1,  1.000,    0,  0.000,    0,  0.000,    0,  0.000
       9,       39,    "1",     0.001000,    0.025000,     1.200000,      0.000,      0.000,      0.000,     0.000000,     0.000000,     0.000000,     0.000000, 1, 1,   0.00,    1,  1.000,    0,  0.000,    0,  0.000,    0,  0.000
      10,       11,    "1",     0.000400,    0.004300,     0.072900,      0.000,      0.000,      0.000,     0.000000,     0.000000,     0.000000,     0.000000, 1, 1,   0.00,    1,  1.000,    0,  0.000,    0,  0.000,    0,  0.000
      10,       13,    "1",     0.000400,    0.004300,     0.072900,      0.000,      0.000,      0.000,     0.000000,     0.000000,     0.000000,     0.000000, 1, 1,   0.00,    1,  1.000,    0,  0.000,    0,  0.000,    0,  0.000
      13,       14,    "1",     0.000900,    0.010100,     0.172300,      0.000,      0.000,      0.000,     0.000000,     0.000000,     0.000000,     0.000000, 1, 1,   0.00,    1,  1.000,    0,  0.000,    0,  0.000,    0,  0.000
      14,       15,    "1",     0.001800,    0.021700,     0.366000,      0.000,      0.000,      0.000,     0.000000,     0.000000,     0.000000,     0.000000, 1, 1,   0.00,    1,  1.000,    0,  0.000,    0,  0.000,    0,  0.000
      15,       16,    "1",     0.000900,    0.009400,     0.171000,      0.000,      0.000,      0.000,     0.000000,     0.000000,     0.000000,     0.000000, 1, 1,   0.00,    1,  1.000,    0,  0.000,    0,  0.000,    0,  0.000
      16,       17,    "1",     0.000700,    0.008900,     0.134200,      0.000,      0.000,      0.000,     0.000000,     0.000000,     0.000000,     0.000000, 1, 1,   0.00,    1,  1.000,    0,  0.000,    0,  0.000,    0,  0.000
      16,       19,    "1",     0.001600,    0.019500,     0.304000,      0.000,      0.000,      0.000,     0.000000,     0.000000,     0.000000,     0.000000, 1, 1,   0.00,    1,  1.000,    0,  0.000,    0,  0.000,    0,  0.000
      16,       21,    "1",     0.000800,    0.013500,     0.254800,      0.000,      0.000,      0.000,     0.000000,     0.000000,     0.000000,     0.000000, 1, 1,   0.00,    1,  1.000,    0,  0.000,    0,  0.000,    0,  0.000
      16,       24,    "1",     0.000300,    0.005900,     0.068000,      0.000,      0.000,      0.000,     0.000000,     0.000000,     0.000000,     0.000000, 1, 1,   0.00,    1,  1.000,    0,  0.000,    0,  0.000,    0,  0.000
      17,       18,    "1",     0.000700,    0.008200,     0.131900,      0.000,      0.000,      0.000,     0.000000,     0.000000,     0.000000,     0.000000, 1, 1,   0.00,    1,  1.000,    0,  0.000,    0,  0.000,    0,  0.000
      17,       27,    "1",     0.001300,    0.017300,     0.321600,      0.000,      0.000,      0.000,     0.000000,     0.000000,     0.000000,     0.000000, 1, 1,   0.00,    1,  1.000,    0,  0.000,    0,  0.000,    0,  0.000
      21,       22,    "1",     0.000800,    0.014000,     0.256500,      0.000,      0.000,      0.000,     0.000000,     0.000000,     0.000000,     0.000000, 1, 1,   0.00,    1,  1.000,    0,  0.000,    0,  0.000,    0,  0.000
      22,       23,    "1",     0.000600,    0.009600,     0.184600,      0.000,      0.000,      0.000,     0.000000,     0.000000,     0.000000,     0.000000, 1, 1,   0.00,    1,  1.000,    0,  0.000,    0,  0.000,    0,  0.000
      23,       24,    "1",     0.002200,    0.035000,     0.361000,      0.000,      0.000,      0.000,     0.000000,     0.000000,     0.000000,     0.000000, 1, 1,   0.00,    1,  1.000,    0,  0.000,    0,  0.000,    0,  0.000
      25,       26,    "1",     0.003200,    0.032300,     0.513000,      0.000,      0.000,      0.000,     0.000000,     0.000000,     0.000000,     0.000000, 1, 1,   0.00,    1,  1.000,    0,  0.000,    0,  0.000,    0,  0.000
      26,       27,    "1",     0.001400,    0.014700,     0.239600,      0.000,      0.000,      0.000,     0.000000,     0.000000,     0.000000,     0.000000, 1, 1,   0.00,    1,  1.000,    0,  0.000,    0,  0.000,    0,  0.000
      26,       28,    "1",     0.004300,    0.047400,     0.780200,      0.000,      0.000,      0.000,     0.000000,     0.000000,     0.000000,     0.000000, 1, 1,   0.00,    1,  1.000,    0,  0.000,    0,  0.000,    0,  0.000
      26,       29,    "1",     0.005700,    0.062500,     1.029000,      0.000,      0.000,      0.000,     0.000000,     0.000000,     0.000000,     0.000000, 1, 1,   0.00,    1,  1.000,    0,  0.000,    0,  0.000,    0,  0.000
      28,       29,    "1",     0.001400,    0.015100,     0.249000,      0.000,      0.000,      0.000,     0.000000,     0.000000,     0.000000,     0.000000, 1, 1,   0.00,    1,  1.000,    0,  0.000,    0,  0.000,    0,  0.000
0 / END OF TRANSMISSION LINE DATA, BEGIN TRANSFORMER DATA
       2,       30,        0,    "1", 3, 2, 1, 0.000000, 0.000000, 2, "                ", 1, 1, 1.000000, 0, 0.000000, 0, 0.000000, 0, 0.000000, ""
          0.000000, 0.018100, 100.000000
          1.025000,  100.00,   0.00,     0.00,     0.00,     0.00, 0, 0, 1.100000, 0.900000,     1.10,     0.90,  33,   0, 0.0, 0.0, 0.0
          1.000000,  100.00
       6,       31,        0,    "1", 3, 2, 1, 0.000000, 0.000000, 2, "                ", 1, 1, 1.000000, 0, 0.000000, 0, 0.000000, 0, 0.000000, ""
          0.000000, 0.025000, 100.000000
          1.070000,  100.00,   0.00,     0.00,     0.00,     0.00, 0, 0, 1.100000, 0.900000,     1.10,     0.90,  33,   0, 0.0, 0.0, 0.0
          1.000000,  100.00
      10,       32,        0,    "1", 3, 2, 1, 0.000000, 0.000000, 2, "                ", 1, 1, 1.000000, 0, 0.000000, 0, 0.000000, 0, 0.000000, ""
          0.000000, 0.020000, 100.000000
          1.070000,  100.00,   0.00,     0.00,     0.00,     0.00, 0, 0, 1.100000, 0.900000,     1.10,     0.90,  33,   0, 0.0, 0.0, 0.0
          1.000000,  100.00
      12,       11,        0,    "1", 3, 2, 1, 0.000000, 0.000000, 2, "                ", 1, 1, 1.000000, 0, 0.000000, 0, 0.000000, 0, 0.000000, ""
          0.001600, 0.043500, 100.000000
          1.006000,  100.00,   0.00,     0.00,     0.00,     0.00, 0, 0, 1.100000, 0.900000,     1.10,     0.90,  33,   0, 0.0, 0.0, 0.0
          1.000000,  100.00
      12,       13,        0,    "1", 3, 2, 1, 0.000000, 0.000000, 2, "                ", 1, 1, 1.000000, 0, 0.000000, 0, 0.000000, 0, 0.000000, ""
          0.001600, 0.043500, 100.000000
          1.006000,  100.00,   0.00,     0.00,     0.00,     0.00, 0, 0, 1.100000, 0.900000,     1.10,     0.90,  33,   0, 0.0, 0.0, 0.0
          1.000000,  100.00
      19,       20,        0,    "1", 3, 2, 1, 0.000000, 0.000000, 2, "                ", 1, 1, 1.000000, 0, 0.000000, 0, 0.000000, 0, 0.000000, ""
          0.000700, 0.013800, 100.000000
          1.060000,  100.00,   0.00,     0.00,     0.00,     0.00, 0, 0, 1.100000, 0.900000,     1.10,     0.90,  33,   0, 0.0, 0.0, 0.0
          1.000000,  100.00
      19,       33,        0,    "1", 3, 2, 1, 0.000000, 0.000000, 2, "                ", 1, 1, 1.000000, 0, 0.000000, 0, 0.000000, 0, 0.000000, ""
          0.000700, 0.014200, 100.000000
          1.070000,  100.00,   0.00,     0.00,     0.00,     0.00, 0, 0, 1.100000, 0.900000,     1.10,     0.90,  33,   0, 0.0, 0.0, 0.0
          1.000000,  100.00
      20,       34,        0,    "1", 3, 2, 1, 0.000000, 0.000000, 2, "                ", 1, 1, 1.000000, 0, 0.000000, 0, 0.000000, 0, 0.000000, ""
          0.000900, 0.018000, 100.000000
          1.009000,  100.00,   0.00,     0.00,     0.00,     0.00, 0, 0, 1.100000, 0.900000,     1.10,     0.90,  33,   0, 0.0, 0.0, 0.0
          1.000000,  100.00
      22,       35,        0,    "1", 3, 2, 1, 0.000000, 0.000000, 2, "                ", 1, 1, 1.000000, 0, 0.000000, 0, 0.000000, 0, 0.000000, ""
          0.000000, 0.014300, 100.000000
          1.025000,  100.00,   0.00,     0.00,     0.00,     0.00, 0, 0, 1.100000, 0.900000,     1.10,     0.90,  33,   0, 0.0, 0.0, 0.0
          1.000000,  100.00
      23,       36,        0,    "1", 3, 2, 1, 0.000000, 0.000000, 2, "                ", 1, 1, 1.000000, 0, 0.000000, 0, 0.000000, 0, 0.000000, ""
          0.000500, 0.027200, 100.000000
          1.000000,  100.00,   0.00,     0.00,     0.00,     0.00, 0, 0, 1.100000, 0.900000,     1.10,     0.90,  33,   0, 0.0, 0.0, 0.0
          1.000000,  100.00
      25,       37,        0,    "1", 3, 2, 1, 0.000000, 0.000000, 2, "                ", 1, 1, 1.000000, 0, 0.000000, 0, 0.000000, 0, 0.000000, ""
          0.000600, 0.023200, 100.000000
          1.025000,  100.00,   0.00,     0.00,     0.00,     0.00, 0, 0, 1.100000, 0.900000,     1.10,     0.90,  33,   0, 0.0, 0.0, 0.0
          1.000000,  100.00
      29,       38,        0,    "1", 3, 2, 1, 0.000000, 0.000000, 2, "                ", 1, 1, 1.000000, 0, 0.000000, 0, 0.000000, 0, 0.000000, ""
          0.000800, 0.015600, 100.000000
          1.025000,  100.00,   0.00,     0.00,     0.00,     0.00, 0, 0, 1.100000, 0.900000,     1.10,     0.90,  33,   0, 0.0, 0.0, 0.0
          1.000000,  100.00
0 / END OF TRANSFORMER DATA, BEGIN AREA DATA
       1, 31, 0, 10, "1"
0 / END OF AREA DATA, BEGIN TWO-TERMINAL HVDC DATA
'0' / END OF TWO-TERMINAL HVDC DATA, BEGIN VSC HVDC LINE DATA
'0' / END OF VSC HVDC LINE DATA, BEGIN IMPEDANCE CORRECTION DATA
0 / END OF IMPEDANCE CORRECTION DATA, BEGIN MULTI-TERMINAL HVDC DATA
0 / END OF MULTI-TERMINAL HVDC DATA, BEGIN MULTI-SECTION LINE DATA
0 / END OF MULTI-SECTION LINE DATA, BEGIN ZONE DATA
0 / END OF ZONE DATA, BEGIN INTER-AREA TRANSFER DATA
0 / END OF INTER-AREA TRANSFER DATA, BEGIN OWNER DATA
0 / END OF OWNER DATA, BEGIN FACTS DEVICE DATA
0 / END OF FACTS DEVICE DATA, BEGIN SWITCHED SHUNT DATA
0 / END OF SWITCHED SHUNT DATA, BEGIN GNE DATA
0 / END OF GNE DATA, BEGIN INDUCTION MACHINE DATA
0 / END OF INDUCTION MACHINE DATA
Q